*Heading
** Job name: as Model name: Model-1
** Generated by: Abaqus/CAE 2022
*Preprint, echo=NO, model=NO, history=NO, contact=NO
**
** PARTS
**
*Part, name=Part-1
*Node
      1, 0.0299999993, 0.0303000007,           1.
      2, 0.0299999993, 0.0201999992,           1.
      3, 0.0299999993, 0.0100999996,           1.
      4, 0.0299999993,           0.,           1.
      5, 0.0299999993, 0.0303000007,   0.99000001
      6, 0.0299999993, 0.0201999992,   0.99000001
      7, 0.0299999993, 0.0100999996,   0.99000001
      8, 0.0299999993,           0.,   0.99000001
      9, 0.0299999993, 0.0303000007,  0.980000019
     10, 0.0299999993, 0.0201999992,  0.980000019
     11, 0.0299999993, 0.0100999996,  0.980000019
     12, 0.0299999993,           0.,  0.980000019
     13, 0.0299999993, 0.0303000007,  0.970000029
     14, 0.0299999993, 0.0201999992,  0.970000029
     15, 0.0299999993, 0.0100999996,  0.970000029
     16, 0.0299999993,           0.,  0.970000029
     17, 0.0299999993, 0.0303000007,  0.959999979
     18, 0.0299999993, 0.0201999992,  0.959999979
     19, 0.0299999993, 0.0100999996,  0.959999979
     20, 0.0299999993,           0.,  0.959999979
** ... 1596 like lines cut
*Element, type=C3D8R
  1,  405,  406,  410,  409,    1,    2,    6,    5
  2,  406,  407,  411,  410,    2,    3,    7,    6
  3,  407,  408,  412,  411,    3,    4,    8,    7
  4,  409,  410,  414,  413,    5,    6,   10,    9
  5,  410,  411,  415,  414,    6,    7,   11,   10
  6,  411,  412,  416,  415,    7,    8,   12,   11
  7,  413,  414,  418,  417,    9,   10,   14,   13
  8,  414,  415,  419,  418,   10,   11,   15,   14
  9,  415,  416,  420,  419,   11,   12,   16,   15
 10,  417,  418,  422,  421,   13,   14,   18,   17
 11,  418,  419,  423,  422,   14,   15,   19,   18
 12,  419,  420,  424,  423,   15,   16,   20,   19
 13,  421,  422,  426,  425,   17,   18,   22,   21
 14,  422,  423,  427,  426,   18,   19,   23,   22
 15,  423,  424,  428,  427,   19,   20,   24,   23
 16,  425,  426,  430,  429,   21,   22,   26,   25
 17,  426,  427,  431,  430,   22,   23,   27,   26
 18,  427,  428,  432,  431,   23,   24,   28,   27
 19,  429,  430,  434,  433,   25,   26,   30,   29
 20,  430,  431,  435,  434,   26,   27,   31,   30
** ... 880 like lines cut
*Nset, nset=Set-1, generate
    1,  1616,     1
*Elset, elset=Set-1, generate
   1,  900,    1
** Section: Section-1
*Solid Section, elset=Set-1, material=Material-1
,
*End Part
**  
**
** ASSEMBLY
**
*Assembly, name=Assembly
**  
*Instance, name=Part-1-1, part=Part-1
*End Instance
**  
*Nset, nset=Set-1, instance=Part-1-1
    1,    2,    3,    4,  401,  402,  403,  404,  405,  406,  407,  408,  805,  806,  807,  808
  809,  810,  811,  812, 1209, 1210, 1211, 1212, 1213, 1214, 1215, 1216, 1613, 1614, 1615, 1616
*Elset, elset=Set-1, instance=Part-1-1
   1,   2,   3, 298, 299, 300, 301, 302, 303, 598, 599, 600, 601, 602, 603, 898
 899, 900
*End Assembly
** 
** MATERIALS
** 
*Material, name=Material-1
*Density
4400.,
*Elastic
 1.04e+11, 0.3
** 
** BOUNDARY CONDITIONS
** 
** Name: BC-1 Type: Displacement/Rotation
*Boundary
Set-1, 1, 1
Set-1, 2, 2
Set-1, 3, 3
